<?xml version="1.0" encoding="UTF-8"?>

<!-- generated on Sat Apr  9 12:54:36 2016 by SUMO netconvert Version 0.25.0
<?xml version="1.0" encoding="UTF-8"?>

<configuration xmlns:xsi="http://www.w3.org/2001/XMLSchema-instance" xsi:noNamespaceSchemaLocation="http://sumo.dlr.de/xsd/netconvertConfiguration.xsd">

    <input>
        <node-files value="jn.nod.xml"/>
        <edge-files value="jn.edg.xml"/>
        <connection-files value="jn.con.xml"/>
    </input>

    <output>
        <output-file value="jn.net.xml"/>
    </output>

</configuration>
-->

<net version="0.25" xmlns:xsi="http://www.w3.org/2001/XMLSchema-instance" xsi:noNamespaceSchemaLocation="http://sumo.dlr.de/xsd/net_file.xsd">

    <location netOffset="500.00,500.00" convBoundary="0.00,0.00,1000.00,1000.00" origBoundary="-500.00,-500.00,500.00,500.00" projParameter="!"/>

    <edge id=":0_0" function="internal">
        <lane id=":0_0_0" index="0" speed="15.28" length="5.00" shape="495.05,508.05 494.86,506.69 494.28,505.73 493.31,505.14 491.95,504.95"/>
    </edge>
    <edge id=":0_1" function="internal">
        <lane id=":0_1_0" index="0" speed="15.28" length="16.10" shape="495.05,508.05 495.05,503.27 495.05,500.00 495.05,496.73 495.05,491.95"/>
        <lane id=":0_1_1" index="1" speed="15.28" length="16.10" shape="498.35,508.05 498.35,503.27 498.35,500.00 498.35,496.73 498.35,491.95"/>
    </edge>
    <edge id=":0_3" function="internal">
        <lane id=":0_3_0" index="0" speed="15.28" length="6.41" shape="498.35,508.05 498.96,503.81 500.05,501.98"/>
    </edge>
    <edge id=":0_14" function="internal">
        <lane id=":0_14_0" index="0" speed="15.28" length="9.23" shape="500.05,501.98 500.78,500.77 503.81,498.96 508.05,498.35"/>
    </edge>
    <edge id=":0_4" function="internal">
        <lane id=":0_4_0" index="0" speed="15.28" length="5.00" shape="508.05,504.95 506.69,505.14 505.73,505.72 505.14,506.69 504.95,508.05"/>
    </edge>
    <edge id=":0_5" function="internal">
        <lane id=":0_5_0" index="0" speed="15.28" length="16.10" shape="508.05,501.65 503.27,501.65 500.00,501.65 496.73,501.65 491.95,501.65"/>
    </edge>
    <edge id=":0_6" function="internal">
        <lane id=":0_6_0" index="0" speed="15.28" length="6.41" shape="508.05,501.65 503.81,501.04 501.98,499.95"/>
    </edge>
    <edge id=":0_15" function="internal">
        <lane id=":0_15_0" index="0" speed="15.28" length="9.23" shape="501.98,499.95 500.77,499.22 498.96,496.19 498.35,491.95"/>
    </edge>
    <edge id=":0_7" function="internal">
        <lane id=":0_7_0" index="0" speed="15.28" length="5.00" shape="504.95,491.95 505.14,493.31 505.72,494.27 506.69,494.86 508.05,495.05"/>
    </edge>
    <edge id=":0_8" function="internal">
        <lane id=":0_8_0" index="0" speed="15.28" length="16.10" shape="504.95,491.95 504.95,496.73 504.95,500.00 504.95,503.27 504.95,508.05"/>
        <lane id=":0_8_1" index="1" speed="15.28" length="16.10" shape="501.65,491.95 501.65,496.73 501.65,500.00 501.65,503.27 501.65,508.05"/>
    </edge>
    <edge id=":0_10" function="internal">
        <lane id=":0_10_0" index="0" speed="15.28" length="6.41" shape="501.65,491.95 501.04,496.19 499.95,498.02"/>
    </edge>
    <edge id=":0_16" function="internal">
        <lane id=":0_16_0" index="0" speed="15.28" length="9.23" shape="499.95,498.02 499.22,499.23 496.19,501.04 491.95,501.65"/>
    </edge>
    <edge id=":0_11" function="internal">
        <lane id=":0_11_0" index="0" speed="15.28" length="5.00" shape="491.95,495.05 493.31,494.86 494.27,494.28 494.86,493.31 495.05,491.95"/>
    </edge>
    <edge id=":0_12" function="internal">
        <lane id=":0_12_0" index="0" speed="15.28" length="16.10" shape="491.95,498.35 496.73,498.35 500.00,498.35 503.27,498.35 508.05,498.35"/>
    </edge>
    <edge id=":0_13" function="internal">
        <lane id=":0_13_0" index="0" speed="15.28" length="6.41" shape="491.95,498.35 496.19,498.96 498.02,500.05"/>
    </edge>
    <edge id=":0_17" function="internal">
        <lane id=":0_17_0" index="0" speed="15.28" length="9.23" shape="498.02,500.05 499.23,500.78 501.04,503.81 501.65,508.05"/>
    </edge>
    <edge id=":1_0" function="internal">
        <lane id=":1_0_0" index="0" speed="15.28" length="4.82" shape="0.00,501.65 -1.24,500.82 -1.65,500.00 -1.24,499.18 0.00,498.35"/>
    </edge>
    <edge id=":2_0" function="internal">
        <lane id=":2_0_0" index="0" speed="15.28" length="4.82" shape="1000.00,498.35 1001.24,499.18 1001.65,500.00 1001.24,500.82 1000.00,501.65"/>
    </edge>
    <edge id=":3_0" function="internal">
        <lane id=":3_0_0" index="0" speed="15.28" length="4.82" shape="498.35,0.00 499.18,-1.24 500.00,-1.65 500.82,-1.24 501.65,0.00"/>
    </edge>
    <edge id=":4_0" function="internal">
        <lane id=":4_0_0" index="0" speed="15.28" length="4.82" shape="501.65,1000.00 500.82,1001.24 500.00,1001.65 499.18,1001.24 498.35,1000.00"/>
    </edge>

    <edge id="1i" from="1" to="0" priority="78">
        <lane id="1i_0" index="0" speed="19.44" length="491.95" shape="0.00,495.05 491.95,495.05"/>
        <lane id="1i_1" index="1" speed="19.44" length="491.95" shape="0.00,498.35 491.95,498.35"/>
    </edge>
    <edge id="1o" from="0" to="1" priority="46">
        <lane id="1o_0" index="0" speed="11.11" length="491.95" shape="491.95,504.95 0.00,504.95"/>
        <lane id="1o_1" index="1" speed="11.11" length="491.95" shape="491.95,501.65 0.00,501.65"/>
    </edge>
    <edge id="2i" from="2" to="0" priority="78">
        <lane id="2i_0" index="0" speed="19.44" length="491.95" shape="1000.00,504.95 508.05,504.95"/>
        <lane id="2i_1" index="1" speed="19.44" length="491.95" shape="1000.00,501.65 508.05,501.65"/>
    </edge>
    <edge id="2o" from="0" to="2" priority="46">
        <lane id="2o_0" index="0" speed="11.11" length="491.95" shape="508.05,495.05 1000.00,495.05"/>
        <lane id="2o_1" index="1" speed="11.11" length="491.95" shape="508.05,498.35 1000.00,498.35"/>
    </edge>
    <edge id="3i" from="3" to="0" priority="78">
        <lane id="3i_0" index="0" speed="19.44" length="491.95" shape="504.95,0.00 504.95,491.95"/>
        <lane id="3i_1" index="1" speed="19.44" length="491.95" shape="501.65,0.00 501.65,491.95"/>
    </edge>
    <edge id="3o" from="0" to="3" priority="46">
        <lane id="3o_0" index="0" speed="11.11" length="491.95" shape="495.05,491.95 495.05,0.00"/>
        <lane id="3o_1" index="1" speed="11.11" length="491.95" shape="498.35,491.95 498.35,0.00"/>
    </edge>
    <edge id="4i" from="4" to="0" priority="78">
        <lane id="4i_0" index="0" speed="19.44" length="491.95" shape="495.05,1000.00 495.05,508.05"/>
        <lane id="4i_1" index="1" speed="19.44" length="491.95" shape="498.35,1000.00 498.35,508.05"/>
    </edge>
    <edge id="4o" from="0" to="4" priority="46">
        <lane id="4o_0" index="0" speed="11.11" length="491.95" shape="504.95,508.05 504.95,1000.00"/>
        <lane id="4o_1" index="1" speed="11.11" length="491.95" shape="501.65,508.05 501.65,1000.00"/>
    </edge>

    <tlLogic id="0" type="static" programID="0" offset="0">
        <phase duration="0.005" state="GGGGGrrGrrrGrr"/>
        <phase duration="18" state="GGGrrrrGGGrrrr"/>
        <phase duration="2" state="yyyrrrryyyrrrr"/>
	<phase duration="0.005" state="GrrrGGGGrrrGrr"/>
        <phase duration="8" state="rrrGGrrrrrGGrr"/>
        <phase duration="2" state="rrryrrrrrryrrr"/>
	<phase duration="0.005" state="GrrrGrrGGGGGrr"/>
        <phase duration="18" state="rrrrGGrrrrrGGr"/>
        <phase duration="2" state="rrrryyrrrrryyr"/>
	<phase duration="0.005" state="GrrrGrrGrrrGGG"/>
        <phase duration="8" state="GrrrrrGGrrrrrG"/>
        <phase duration="2" state="rrrrrryrrrrrry"/>
    </tlLogic>

    <junction id="0" type="traffic_light" x="500.00" y="500.00" incLanes="4i_0 4i_1 2i_0 2i_1 3i_0 3i_1 1i_0 1i_1" intLanes=":0_0_0 :0_1_0 :0_1_1 :0_14_0 :0_4_0 :0_5_0 :0_15_0 :0_7_0 :0_8_0 :0_8_1 :0_16_0 :0_11_0 :0_12_0 :0_17_0" shape="493.45,508.05 506.55,508.05 508.05,506.55 508.05,493.45 506.55,491.95 493.45,491.95 491.95,493.45 491.95,506.55">
        <request index="0" response="00000000000000" foes="00010000100000" cont="0"/>
        <request index="1" response="00000000000000" foes="11110001100000" cont="0"/>
        <request index="2" response="00000000000000" foes="11110001100000" cont="0"/>
        <request index="3" response="00001110000000" foes="11001111100000" cont="1"/>
        <request index="4" response="00001100000000" foes="10001100000000" cont="0"/>
        <request index="5" response="00011100001111" foes="10011100001111" cont="0"/>
        <request index="6" response="01111100001110" foes="01111100001110" cont="1"/>
        <request index="7" response="00000000000000" foes="01000000001000" cont="0"/>
        <request index="8" response="00000000000000" foes="11000001111000" cont="0"/>
        <request index="9" response="00000000000000" foes="11000001111000" cont="0"/>
        <request index="10" response="00000000000111" foes="11000001100111" cont="1"/>
        <request index="11" response="00000000000110" foes="00000001000110" cont="0"/>
        <request index="12" response="00011110001110" foes="00011111001110" cont="0"/>
        <request index="13" response="00011100111110" foes="00011100111110" cont="1"/>
    </junction>
    <junction id="1" type="priority" x="0.00" y="500.00" incLanes="1o_0 1o_1" intLanes=":1_0_0" shape="0.00,499.95 0.00,493.45 0.00,506.55 0.00,500.05">
        <request index="0" response="0" foes="0" cont="0"/>
    </junction>
    <junction id="2" type="priority" x="1000.00" y="500.00" incLanes="2o_0 2o_1" intLanes=":2_0_0" shape="1000.00,500.05 1000.00,506.55 1000.00,493.45 1000.00,499.95">
        <request index="0" response="0" foes="0" cont="0"/>
    </junction>
    <junction id="3" type="priority" x="500.00" y="0.00" incLanes="3o_0 3o_1" intLanes=":3_0_0" shape="500.05,0.00 506.55,0.00 493.45,0.00 499.95,0.00">
        <request index="0" response="0" foes="0" cont="0"/>
    </junction>
    <junction id="4" type="priority" x="500.00" y="1000.00" incLanes="4o_0 4o_1" intLanes=":4_0_0" shape="499.95,1000.00 493.45,1000.00 506.55,1000.00 500.05,1000.00">
        <request index="0" response="0" foes="0" cont="0"/>
    </junction>

    <junction id=":0_14_0" type="internal" x="500.05" y="501.98" incLanes=":0_3_0 3i_0 3i_1" intLanes=":0_5_0 :0_6_0 :0_7_0 :0_8_0 :0_8_1 :0_12_0 :0_13_0"/>
    <junction id=":0_15_0" type="internal" x="501.98" y="499.95" incLanes=":0_6_0 1i_0 1i_1" intLanes=":0_1_0 :0_1_1 :0_3_0 :0_8_0 :0_8_1 :0_10_0 :0_11_0 :0_12_0"/>
    <junction id=":0_16_0" type="internal" x="499.95" y="498.02" incLanes=":0_10_0 4i_0 4i_1" intLanes=":0_0_0 :0_1_0 :0_1_1 :0_5_0 :0_6_0 :0_12_0 :0_13_0"/>
    <junction id=":0_17_0" type="internal" x="498.02" y="500.05" incLanes=":0_13_0 2i_0 2i_1" intLanes=":0_1_0 :0_1_1 :0_3_0 :0_4_0 :0_5_0 :0_8_0 :0_8_1 :0_10_0"/>

    <connection from="1i" to="3o" fromLane="0" toLane="0" via=":0_11_0" tl="0" linkIndex="11" dir="r" state="o"/>
    <connection from="1i" to="2o" fromLane="1" toLane="1" via=":0_12_0" tl="0" linkIndex="12" dir="s" state="o"/>
    <connection from="1i" to="4o" fromLane="1" toLane="1" via=":0_13_0" tl="0" linkIndex="13" dir="l" state="o"/>
    <connection from="1o" to="1i" fromLane="1" toLane="1" via=":1_0_0" dir="t" state="M"/>
    <connection from="2i" to="4o" fromLane="0" toLane="0" via=":0_4_0" tl="0" linkIndex="4" dir="r" state="o"/>
    <connection from="2i" to="1o" fromLane="1" toLane="1" via=":0_5_0" tl="0" linkIndex="5" dir="s" state="o"/>
    <connection from="2i" to="3o" fromLane="1" toLane="1" via=":0_6_0" tl="0" linkIndex="6" dir="l" state="o"/>
    <connection from="2o" to="2i" fromLane="1" toLane="1" via=":2_0_0" dir="t" state="M"/>
    <connection from="3i" to="2o" fromLane="0" toLane="0" via=":0_7_0" tl="0" linkIndex="7" dir="r" state="o"/>
    <connection from="3i" to="4o" fromLane="0" toLane="0" via=":0_8_0" tl="0" linkIndex="8" dir="s" state="o"/>
    <connection from="3i" to="4o" fromLane="1" toLane="1" via=":0_8_1" tl="0" linkIndex="9" dir="s" state="o"/>
    <connection from="3i" to="1o" fromLane="1" toLane="1" via=":0_10_0" tl="0" linkIndex="10" dir="l" state="o"/>
    <connection from="3o" to="3i" fromLane="1" toLane="1" via=":3_0_0" dir="t" state="M"/>
    <connection from="4i" to="1o" fromLane="0" toLane="0" via=":0_0_0" tl="0" linkIndex="0" dir="r" state="o"/>
    <connection from="4i" to="3o" fromLane="0" toLane="0" via=":0_1_0" tl="0" linkIndex="1" dir="s" state="o"/>
    <connection from="4i" to="3o" fromLane="1" toLane="1" via=":0_1_1" tl="0" linkIndex="2" dir="s" state="o"/>
    <connection from="4i" to="2o" fromLane="1" toLane="1" via=":0_3_0" tl="0" linkIndex="3" dir="l" state="o"/>
    <connection from="4o" to="4i" fromLane="1" toLane="1" via=":4_0_0" dir="t" state="M"/>

    <connection from=":0_0" to="1o" fromLane="0" toLane="0" dir="s" state="M"/>
    <connection from=":0_1" to="3o" fromLane="0" toLane="0" dir="s" state="M"/>
    <connection from=":0_1" to="3o" fromLane="1" toLane="1" dir="s" state="M"/>
    <connection from=":0_3" to="2o" fromLane="0" toLane="1" via=":0_14_0" dir="s" state="m"/>
    <connection from=":0_14" to="2o" fromLane="0" toLane="1" dir="s" state="M"/>
    <connection from=":0_4" to="4o" fromLane="0" toLane="0" dir="s" state="M"/>
    <connection from=":0_5" to="1o" fromLane="0" toLane="1" dir="s" state="M"/>
    <connection from=":0_6" to="3o" fromLane="0" toLane="1" via=":0_15_0" dir="s" state="m"/>
    <connection from=":0_15" to="3o" fromLane="0" toLane="1" dir="s" state="M"/>
    <connection from=":0_7" to="2o" fromLane="0" toLane="0" dir="s" state="M"/>
    <connection from=":0_8" to="4o" fromLane="0" toLane="0" dir="s" state="M"/>
    <connection from=":0_8" to="4o" fromLane="1" toLane="1" dir="s" state="M"/>
    <connection from=":0_10" to="1o" fromLane="0" toLane="1" via=":0_16_0" dir="s" state="m"/>
    <connection from=":0_16" to="1o" fromLane="0" toLane="1" dir="s" state="M"/>
    <connection from=":0_11" to="3o" fromLane="0" toLane="0" dir="s" state="M"/>
    <connection from=":0_12" to="2o" fromLane="0" toLane="1" dir="s" state="M"/>
    <connection from=":0_13" to="4o" fromLane="0" toLane="1" via=":0_17_0" dir="s" state="m"/>
    <connection from=":0_17" to="4o" fromLane="0" toLane="1" dir="s" state="M"/>
    <connection from=":1_0" to="1i" fromLane="0" toLane="1" dir="s" state="M"/>
    <connection from=":2_0" to="2i" fromLane="0" toLane="1" dir="s" state="M"/>
    <connection from=":3_0" to="3i" fromLane="0" toLane="1" dir="s" state="M"/>
    <connection from=":4_0" to="4i" fromLane="0" toLane="1" dir="s" state="M"/>

</net>
